*Heading
** Job name: PaperModel-0PCT-FineMesh-1105 Model name: PaperModel-0PCT-FineMesh-1105
** Generated by: Abaqus/CAE 2019
*Preprint, echo=NO, model=NO, history=NO, contact=NO
**
** PARTS
**
*Part, name=Composite
*Node
      1,  0.649999976,  0.649999976,          10.
      2,  0.584999979,  0.649999976,          10.
      3,  0.649999976,  0.584999979,          10.
      4,   0.60403806,   0.60403806,          10.
      5,  0.584999979,  0.649999976,           0.
      6,  0.649999976,  0.649999976,           0.
      7,  0.649999976,  0.584999979,           0.
      8,           0.,  0.649999976,          10.
      9,           0.,           0.,          10.
     10,  0.649999976,           0.,          10.
     11,  0.649999976,           0.,           0.
     12,           0.,           0.,           0.
     13,           0.,  0.649999976,           0.
     14,  0.642736554,  0.649999976,          10.
     15,  0.635491252,  0.649999976,          10.
     16,  0.628276825,  0.649999976,          10.
     17,  0.621113002,  0.649999976,          10.
     18,  0.614016652,  0.649999976,          10.
     19,  0.606972694,  0.649999976,          10.
     20,  0.599898398,  0.649999976,          10.
** ... 51838 like lines cut
*Element, type=C3D8
    1,  1352,  1353,    35,    34, 13862, 13863,  4027,  4028
    2,  1353,  1354,    36,    35, 13863, 13864,  4026,  4027
    3,  1354,  1355,    37,    36, 13864, 13865,  4025,  4026
    4,  1355,  1356,    38,    37, 13865, 13866,  4024,  4025
    5,  1356,  1357,    39,    38, 13866, 13867,  4023,  4024
    6,  1357,    14,     1,    39, 13867,  5224,   636,  4023
    7,  1351,  1358,  1353,  1352, 13861, 13868, 13863, 13862
    8,  1358,  1359,  1354,  1353, 13868, 13869, 13864, 13863
    9,  1359,  1360,  1355,  1354, 13869, 13870, 13865, 13864
   10,  1360,  1361,  1356,  1355, 13870, 13871, 13866, 13865
   11,  1361,  1362,  1357,  1356, 13871, 13872, 13867, 13866
   12,  1362,    15,    14,  1357, 13872,  5223,  5224, 13867
   13,  1350,  1363,  1358,  1351, 13860, 13873, 13868, 13861
   14,  1363,  1364,  1359,  1358, 13873, 13874, 13869, 13868
   15,  1364,  1365,  1360,  1359, 13874, 13875, 13870, 13869
   16,  1365,  1366,  1361,  1360, 13875, 13876, 13871, 13870
   17,  1366,  1367,  1362,  1361, 13876, 13877, 13872, 13871
   18,  1367,    16,    15,  1362, 13877,  5222,  5223, 13872
   19,  1349,  1368,  1363,  1350, 13859, 13878, 13873, 13860
   20,  1368,  1369,  1364,  1363, 13878, 13879, 13874, 13873
** ... 45980 like lines cut
*Nset, nset=Set-1
     2,     3,     4,     5,     7,     8,     9,    10,    11,    12,    13,    22,    23,    24,    25,    26
    27,    28,    29,    30,    31,    32,    33,    40,    41,    42,    43,    44,    45,    46,    47,    48
    49,    50,    51,    52,    53,    54,    55,    56,    57,    58,    59,    60,    61,    62,    63,    64
    65,    66,    67,    68,    69,    70,    71,    72,    73,    74,    75,    76,    77,    78,    79,    80
    81,    82,    83,    84,    85,    86,    87,    88,    89,    90,    91,    92,    93,    94,    95,    96
    97,    98,    99,   100,   101,   102,   103,   104,   105,   106,   107,   108,   109,   110,   111,   112
   113,   114,   115,   116,   117,   118,   119,   120,   121,   122,   123,   124,   125,   126,   127,   128
   129,   130,   131,   132,   133,   134,   135,   136,   137,   138,   139,   140,   141,   142,   143,   144
   145,   146,   147,   148,   149,   150,   151,   152,   153,   154,   155,   156,   157,   158,   159,   160
   161,   162,   163,   164,   165,   166,   167,   168,   169,   170,   171,   172,   173,   174,   175,   176
   177,   178,   179,   180,   181,   182,   183,   184,   185,   186,   187,   188,   189,   190,   191,   192
   193,   194,   195,   196,   197,   198,   199,   200,   201,   202,   203,   204,   205,   206,   207,   208
   209,   210,   211,   212,   213,   214,   215,   216,   217,   218,   219,   220,   221,   222,   223,   224
   225,   226,   227,   228,   229,   230,   231,   232,   233,   234,   235,   236,   237,   238,   239,   240
   241,   242,   243,   244,   245,   246,   247,   248,   249,   250,   251,   252,   253,   254,   255,   256
   257,   258,   259,   260,   261,   262,   263,   264,   265,   266,   267,   268,   269,   270,   271,   272
   273,   274,   275,   276,   277,   278,   279,   280,   281,   282,   283,   284,   285,   286,   287,   288
   289,   290,   291,   292,   293,   294,   295,   296,   297,   298,   299,   300,   301,   302,   303,   304
   305,   306,   307,   308,   309,   310,   311,   312,   313,   314,   315,   316,   317,   318,   319,   320
   321,   322,   323,   324,   325,   326,   327,   328,   329,   330,   331,   332,   333,   334,   335,   336
** ... 2430 like lines cut
*Elset, elset=Set-1, generate
 12401,  46000,      1
*Nset, nset=Set-2
     1,     2,     3,     4,     5,     6,     7,    14,    15,    16,    17,    18,    19,    20,    21,    22
    23,    24,    25,    26,    27,    28,    29,    30,    31,    32,    33,    34,    35,    36,    37,    38
    39,    40,    41,    42,    43,    44,    45,    46,    47,    48,    49,    50,    51,    52,    53,    54
    55,    56,    57,    58,    59,    60,    61,    62,    63,    64,    65,    66,    67,    68,    69,    70
    71,    72,    73,    74,    75,    76,    77,    78,    79,    80,    81,    82,    83,    84,    85,    86
    87,    88,    89,    90,    91,    92,    93,    94,    95,    96,    97,    98,    99,   100,   101,   102
   103,   104,   105,   106,   107,   108,   109,   110,   111,   112,   113,   114,   115,   116,   117,   118
   119,   120,   121,   122,   123,   124,   125,   126,   127,   128,   129,   130,   131,   132,   133,   134
   135,   136,   137,   138,   139,   140,   141,   142,   143,   144,   145,   146,   147,   148,   149,   150
   151,   152,   153,   154,   155,   156,   157,   158,   159,   160,   161,   162,   163,   164,   165,   166
   167,   168,   169,   170,   171,   172,   173,   174,   175,   176,   177,   178,   179,   180,   181,   182
   183,   184,   185,   186,   187,   188,   189,   190,   191,   192,   193,   194,   195,   196,   197,   198
   199,   200,   201,   202,   203,   204,   205,   206,   207,   208,   209,   210,   211,   212,   213,   214
   215,   216,   217,   218,   219,   220,   221,   222,   223,   224,   225,   226,   227,   228,   229,   230
   231,   232,   233,   234,   235,   236,   237,   238,   239,   240,   241,   242,   243,   244,   245,   246
   247,   248,   249,   250,   251,   252,   253,   254,   255,   256,   257,   258,   259,   260,   261,   262
   263,   264,   265,   266,   267,   268,   269,   270,   271,   272,   273,   274,   275,   276,   277,   278
   279,   280,   281,   282,   283,   284,   285,   286,   287,   288,   289,   290,   291,   292,   293,   294
   295,   296,   297,   298,   299,   300,   301,   302,   303,   304,   305,   306,   307,   308,   309,   310
   311,   312,   313,   314,   315,   316,   317,   318,   319,   320,   321,   322,   323,   324,   325,   326
** ... 960 like lines cut
*Elset, elset=Set-2, generate
     1,  12400,      1
** Section: Fiber
*Solid Section, elset=Set-2, material=Fiber
,
** Section: Matrix
*Solid Section, elset=Set-1, material=Vitrimer
,
*End Part
**  
**
** ASSEMBLY
**
*Assembly, name=Assembly
**  
*Instance, name=Composite-1, part=Composite
*End Instance
**  
*Nset, nset=Set-1, instance=Composite-1
     1,     3,     6,     7,    10,    11,    34,    35,    36,    37,    38,    39,   239,   240,   241,   242
   243,   244,   245,   246,   247,   248,   249,   250,   251,   252,   253,   254,   255,   256,   257,   258
   259,   260,   261,   262,   263,   264,   265,   266,   267,   268,   269,   270,   271,   272,   273,   274
   275,   276,   277,   278,   279,   280,   281,   282,   283,   284,   285,   286,   287,   288,   289,   290
   291,   292,   293,   294,   295,   296,   297,   298,   299,   300,   301,   302,   303,   304,   305,   306
   307,   308,   309,   310,   311,   312,   313,   314,   315,   316,   317,   318,   319,   320,   321,   322
   323,   324,   325,   326,   327,   328,   329,   330,   331,   332,   333,   334,   335,   336,   337,   338
   339,   340,   341,   342,   343,   344,   345,   346,   347,   348,   349,   350,   351,   352,   353,   354
   355,   356,   357,   358,   359,   360,   361,   362,   363,   364,   365,   366,   367,   368,   369,   370
   371,   372,   373,   374,   375,   376,   377,   378,   379,   380,   381,   382,   383,   384,   385,   386
   387,   388,   389,   390,   391,   392,   393,   394,   395,   396,   397,   398,   399,   400,   401,   402
   403,   404,   405,   406,   407,   408,   409,   410,   411,   412,   413,   414,   415,   416,   417,   418
   419,   420,   421,   422,   423,   424,   425,   426,   427,   428,   429,   430,   431,   432,   433,   434
   435,   436,   437,   438,   439,   440,   441,   442,   443,   444,   445,   446,   447,   448,   449,   450
   451,   452,   453,   454,   455,   456,   457,   458,   459,   460,   461,   462,   463,   464,   465,   466
   467,   468,   469,   470,   471,   472,   473,   474,   475,   476,   477,   478,   479,   480,   481,   482
   483,   484,   485,   486,   487,   488,   489,   490,   491,   492,   493,   494,   495,   496,   497,   498
   499,   500,   501,   502,   503,   504,   505,   506,   507,   508,   509,   510,   511,   512,   513,   514
   515,   516,   517,   518,   519,   520,   521,   522,   523,   524,   525,   526,   527,   528,   529,   530
   531,   532,   533,   534,   535,   536,   537,   538,   539,   540,   541,   542,   543,   544,   545,   546
** ... 232 like lines cut
*Elset, elset=Set-1, instance=Composite-1
     1,     2,     3,     4,     5,     6,    55,    63,    64,    65,    66,    67,    68,   117,   125,   126
   127,   128,   129,   130,   179,   187,   188,   189,   190,   191,   192,   241,   249,   250,   251,   252
   253,   254,   303,   311,   312,   313,   314,   315,   316,   365,   373,   374,   375,   376,   377,   378
   427,   435,   436,   437,   438,   439,   440,   489,   497,   498,   499,   500,   501,   502,   551,   559
   560,   561,   562,   563,   564,   613,   621,   622,   623,   624,   625,   626,   675,   683,   684,   685
   686,   687,   688,   737,   745,   746,   747,   748,   749,   750,   799,   807,   808,   809,   810,   811
   812,   861,   869,   870,   871,   872,   873,   874,   923,   931,   932,   933,   934,   935,   936,   985
   993,   994,   995,   996,   997,   998,  1047,  1055,  1056,  1057,  1058,  1059,  1060,  1109,  1117,  1118
  1119,  1120,  1121,  1122,  1171,  1179,  1180,  1181,  1182,  1183,  1184,  1233,  1241,  1242,  1243,  1244
  1245,  1246,  1295,  1303,  1304,  1305,  1306,  1307,  1308,  1357,  1365,  1366,  1367,  1368,  1369,  1370
  1419,  1427,  1428,  1429,  1430,  1431,  1432,  1481,  1489,  1490,  1491,  1492,  1493,  1494,  1543,  1551
  1552,  1553,  1554,  1555,  1556,  1605,  1613,  1614,  1615,  1616,  1617,  1618,  1667,  1675,  1676,  1677
  1678,  1679,  1680,  1729,  1737,  1738,  1739,  1740,  1741,  1742,  1791,  1799,  1800,  1801,  1802,  1803
  1804,  1853,  1861,  1862,  1863,  1864,  1865,  1866,  1915,  1923,  1924,  1925,  1926,  1927,  1928,  1977
  1985,  1986,  1987,  1988,  1989,  1990,  2039,  2047,  2048,  2049,  2050,  2051,  2052,  2101,  2109,  2110
  2111,  2112,  2113,  2114,  2163,  2171,  2172,  2173,  2174,  2175,  2176,  2225,  2233,  2234,  2235,  2236
  2237,  2238,  2287,  2295,  2296,  2297,  2298,  2299,  2300,  2349,  2357,  2358,  2359,  2360,  2361,  2362
  2411,  2419,  2420,  2421,  2422,  2423,  2424,  2473,  2481,  2482,  2483,  2484,  2485,  2486,  2535,  2543
  2544,  2545,  2546,  2547,  2548,  2597,  2605,  2606,  2607,  2608,  2609,  2610,  2659,  2667,  2668,  2669
  2670,  2671,  2672,  2721,  2729,  2730,  2731,  2732,  2733,  2734,  2783,  2791,  2792,  2793,  2794,  2795
** ... 218 like lines cut
*Nset, nset=Set-2, instance=Composite-1
     1,     2,     5,     6,     8,    13,    14,    15,    16,    17,    18,    19,    20,    21,    40,    41
    42,    43,    44,    45,    46,    47,    48,    49,    50,    51,    52,    53,    54,    55,    56,    57
    58,    59,    60,    61,    62,    63,    64,    65,    66,    67,    68,    69,    70,    71,    72,    73
    74,    75,    76,    77,    78,    79,    80,    81,    82,    83,    84,    85,    86,    87,    88,    89
    90,    91,    92,    93,    94,    95,    96,    97,    98,    99,   100,   101,   102,   103,   104,   105
   106,   107,   108,   109,   110,   111,   112,   113,   114,   115,   116,   117,   118,   119,   120,   121
   122,   123,   124,   125,   126,   127,   128,   129,   130,   131,   132,   133,   134,   135,   136,   137
   138,   139,   140,   141,   142,   143,   144,   145,   146,   147,   148,   149,   150,   151,   152,   153
   154,   155,   156,   157,   158,   159,   160,   161,   162,   163,   164,   165,   166,   167,   168,   169
   170,   171,   172,   173,   174,   175,   176,   177,   178,   179,   180,   181,   182,   183,   184,   185
   186,   187,   188,   189,   190,   191,   192,   193,   194,   195,   196,   197,   198,   199,   200,   201
   202,   203,   204,   205,   206,   207,   208,   209,   210,   211,   212,   213,   214,   215,   216,   217
   218,   219,   220,   221,   222,   223,   224,   225,   226,   227,   228,   229,   230,   231,   232,   233
   234,   235,   236,   237,   238,   438,   439,   440,   441,   442,   443,   444,   445,   446,   447,   448
   449,   450,   451,   452,   453,   454,   455,   456,   457,   458,   459,   460,   461,   462,   463,   464
   465,   466,   467,   468,   469,   470,   471,   472,   473,   474,   475,   476,   477,   478,   479,   480
   481,   482,   483,   484,   485,   486,   487,   488,   489,   490,   491,   492,   493,   494,   495,   496
   497,   498,   499,   500,   501,   502,   503,   504,   505,   506,   507,   508,   509,   510,   511,   512
   513,   514,   515,   516,   517,   518,   519,   520,   521,   522,   523,   524,   525,   526,   527,   528
   529,   530,   531,   532,   533,   534,   535,   536,   537,   538,   539,   540,   541,   542,   543,   544
** ... 257 like lines cut
*Elset, elset=Set-2, instance=Composite-1
     6,    12,    18,    24,    30,    36,    42,    48,    49,    68,    74,    80,    86,    92,    98,   104
   110,   111,   130,   136,   142,   148,   154,   160,   166,   172,   173,   192,   198,   204,   210,   216
   222,   228,   234,   235,   254,   260,   266,   272,   278,   284,   290,   296,   297,   316,   322,   328
   334,   340,   346,   352,   358,   359,   378,   384,   390,   396,   402,   408,   414,   420,   421,   440
   446,   452,   458,   464,   470,   476,   482,   483,   502,   508,   514,   520,   526,   532,   538,   544
   545,   564,   570,   576,   582,   588,   594,   600,   606,   607,   626,   632,   638,   644,   650,   656
   662,   668,   669,   688,   694,   700,   706,   712,   718,   724,   730,   731,   750,   756,   762,   768
   774,   780,   786,   792,   793,   812,   818,   824,   830,   836,   842,   848,   854,   855,   874,   880
   886,   892,   898,   904,   910,   916,   917,   936,   942,   948,   954,   960,   966,   972,   978,   979
   998,  1004,  1010,  1016,  1022,  1028,  1034,  1040,  1041,  1060,  1066,  1072,  1078,  1084,  1090,  1096
  1102,  1103,  1122,  1128,  1134,  1140,  1146,  1152,  1158,  1164,  1165,  1184,  1190,  1196,  1202,  1208
  1214,  1220,  1226,  1227,  1246,  1252,  1258,  1264,  1270,  1276,  1282,  1288,  1289,  1308,  1314,  1320
  1326,  1332,  1338,  1344,  1350,  1351,  1370,  1376,  1382,  1388,  1394,  1400,  1406,  1412,  1413,  1432
  1438,  1444,  1450,  1456,  1462,  1468,  1474,  1475,  1494,  1500,  1506,  1512,  1518,  1524,  1530,  1536
  1537,  1556,  1562,  1568,  1574,  1580,  1586,  1592,  1598,  1599,  1618,  1624,  1630,  1636,  1642,  1648
  1654,  1660,  1661,  1680,  1686,  1692,  1698,  1704,  1710,  1716,  1722,  1723,  1742,  1748,  1754,  1760
  1766,  1772,  1778,  1784,  1785,  1804,  1810,  1816,  1822,  1828,  1834,  1840,  1846,  1847,  1866,  1872
  1878,  1884,  1890,  1896,  1902,  1908,  1909,  1928,  1934,  1940,  1946,  1952,  1958,  1964,  1970,  1971
  1990,  1996,  2002,  2008,  2014,  2020,  2026,  2032,  2033,  2052,  2058,  2064,  2070,  2076,  2082,  2088
  2094,  2095,  2114,  2120,  2126,  2132,  2138,  2144,  2150,  2156,  2157,  2176,  2182,  2188,  2194,  2200
** ... 243 like lines cut
*Nset, nset=Set-3, instance=Composite-1
    5,    6,    7,   11,   12,   13,  637,  638,  639,  640,  641,  642,  643,  644,  645,  646
  647,  648,  649,  650,  651,  652,  653,  654,  655,  656,  657,  658,  659,  660,  661,  662
  663, 1306, 1307, 1308, 1309, 1310, 1311, 1312, 1313, 1314, 1315, 1316, 1317, 1318, 1319, 1320
 1321, 1322, 1323, 1324, 1325, 1326, 1327, 1328, 1329, 1330, 1331, 1332, 1333, 1334, 1335, 1336
 1337, 1338, 1339, 1388, 1389, 1390, 1391, 1392, 1393, 1394, 1395, 1396, 1397, 1398, 1399, 1400
 1401, 1402, 1403, 1404, 1405, 1406, 1407, 1408, 1409, 1410, 1411, 1412, 1413, 1414, 1415, 1416
 1417, 1418, 1419, 1420, 1421, 1422, 1423, 1424, 1425, 1426, 1427, 1428, 1429, 1430, 1431, 1432
 1433, 1434, 1435, 6941, 6942, 6943, 6944, 6945, 6946, 6947, 6948, 6949, 6950, 6951, 6952, 6953
 6954, 6955, 6956, 6957, 6958, 6959, 6960, 6961, 6962, 6963, 6964, 6965, 6966, 6967, 6968, 6969
 6970, 6971, 6972, 6973, 6974, 6975, 6976, 6977, 6978, 6979, 6980, 6981, 6982, 6983, 6984, 6985
 6986, 6987, 6988, 6989, 6990, 6991, 6992, 6993, 6994, 6995, 6996, 6997, 6998, 6999, 7000, 7001
 7002, 7003, 7004, 7005, 7006, 7007, 7008, 7009, 7010, 7011, 7012, 7013, 7014, 7015, 7016, 7017
 7018, 7019, 7020, 7021, 7022, 7023, 7024, 7025, 7026, 7027, 7028, 7029, 7030, 7031, 7032, 7033
 7034, 7035, 7036, 7037, 7038, 7039, 7040, 7041, 7042, 7043, 7044, 7045, 7046, 7047, 7048, 7049
 7050, 7051, 7052, 7053, 7054, 7055, 7056, 7057, 7058, 7059, 7060, 7061, 7062, 7063, 7064, 7065
 7066, 7067, 7068, 7069, 7070, 7071, 7072, 7073, 7074, 7075, 7076, 7077, 7078, 7079, 7080, 7081
 7082, 7083
*Elset, elset=Set-3, instance=Composite-1
 12339, 12340, 12341, 12342, 12343, 12344, 12345, 12346, 12347, 12348, 12349, 12350, 12351, 12352, 12353, 12354
 12355, 12356, 12357, 12358, 12359, 12360, 12361, 12362, 12363, 12364, 12365, 12366, 12367, 12368, 12369, 12370
 12371, 12372, 12373, 12374, 12375, 12376, 12377, 12378, 12379, 12380, 12381, 12382, 12383, 12384, 12385, 12386
 12387, 12388, 12389, 12390, 12391, 12392, 12393, 12394, 12395, 12396, 12397, 12398, 12399, 12400, 45833, 45834
 45835, 45836, 45837, 45838, 45839, 45840, 45841, 45842, 45843, 45844, 45845, 45846, 45847, 45848, 45849, 45850
 45851, 45852, 45853, 45854, 45855, 45856, 45857, 45858, 45859, 45860, 45861, 45862, 45863, 45864, 45865, 45866
 45867, 45868, 45869, 45870, 45871, 45872, 45873, 45874, 45875, 45876, 45877, 45878, 45879, 45880, 45881, 45882
 45883, 45884, 45885, 45886, 45887, 45888, 45889, 45890, 45891, 45892, 45893, 45894, 45895, 45896, 45897, 45898
 45899, 45900, 45901, 45902, 45903, 45904, 45905, 45906, 45907, 45908, 45909, 45910, 45911, 45912, 45913, 45914
 45915, 45916, 45917, 45918, 45919, 45920, 45921, 45922, 45923, 45924, 45925, 45926, 45927, 45928, 45929, 45930
 45931, 45932, 45933, 45934, 45935, 45936, 45937, 45938, 45939, 45940, 45941, 45942, 45943, 45944, 45945, 45946
 45947, 45948, 45949, 45950, 45951, 45952, 45953, 45954, 45955, 45956, 45957, 45958, 45959, 45960, 45961, 45962
 45963, 45964, 45965, 45966, 45967, 45968, 45969, 45970, 45971, 45972, 45973, 45974, 45975, 45976, 45977, 45978
 45979, 45980, 45981, 45982, 45983, 45984, 45985, 45986, 45987, 45988, 45989, 45990, 45991, 45992, 45993, 45994
 45995, 45996, 45997, 45998, 45999, 46000
*Nset, nset=Set-4, instance=Composite-1, generate
     1,  51858,      1
*Elset, elset=Set-4, instance=Composite-1, generate
     1,  46000,      1
*Nset, nset=Set-5, instance=Composite-1, generate
     1,  51858,      1
*Elset, elset=Set-5, instance=Composite-1, generate
     1,  46000,      1
*End Assembly
*Amplitude, name=Cooling1
             0.,           163.1,             60.,           161.4,            120.,           158.9,            180.,           155.8
           240.,           153.5,            300.,           150.6,            360.,            148.,            420.,           145.2
           480.,            142.,            540.,           138.7,            600.,           135.4,            660.,           131.9
           720.,           128.7,            780.,           125.2,            840.,           121.7,            900.,            119.
           960.,           115.9,           1020.,           112.6,           1080.,            110.,           1140.,           107.4
          1200.,           104.3,           1260.,           101.3,           1320.,            97.8,           1380.,            95.3
          1440.,            92.4,           1500.,            89.6,           1560.,            86.6,           1620.,            84.2
          1680.,            81.7,           1740.,            78.9,           1800.,            76.2,           1860.,            73.5
          1920.,            71.4,           1980.,            68.8,           2040.,            65.9,           2100.,            64.1
          2160.,            61.5,           2220.,            58.7,           2280.,             56.,           2340.,             54.
          2400.,            51.4,           2460.,             49.,           2520.,            46.1,           2580.,            43.7
          2640.,            40.8,           2700.,            38.2,           2760.,            35.3,           2820.,            32.5
*Amplitude, name=Cooling2
             0.,           197.3,             60.,           196.6,            120.,           194.9,            180.,            192.
           240.,           188.4,            300.,           185.4,            360.,           182.3,            420.,            179.
           480.,            176.,            540.,           172.9,            600.,           169.7,            660.,           166.7
           720.,           163.7,            780.,           160.4,            840.,           157.2,            900.,           154.4
           960.,           151.1,           1020.,           147.9,           1080.,           145.2,           1140.,           142.2
          1200.,           139.3,           1260.,           136.4,           1320.,           133.5,           1380.,           130.6
          1440.,           128.1,           1500.,           125.5,           1560.,           122.7,           1620.,           120.5
          1680.,            118.,           1740.,           115.8,           1800.,           113.6,           1860.,           110.8
          1920.,            109.,           1980.,           106.6,           2040.,           104.2,           2100.,           102.2
          2160.,            99.5,           2220.,            97.8,           2280.,            95.9,           2340.,            93.8
          2400.,             92.,           2460.,            89.9,           2520.,            87.9,           2580.,            86.1
          2640.,            84.1,           2700.,            82.3,           2760.,            80.6,           2820.,            78.9
          2880.,            76.9,           2940.,            75.3,           3000.,            73.8,           3060.,             72.
          3120.,            70.4,           3180.,            68.8,           3240.,            67.3,           3300.,            65.5
          3360.,            64.1,           3420.,             62.,           3480.,            59.3,           3540.,            56.3
          3600.,            53.2,           3660.,            49.8,           3720.,            46.2,           3780.,            42.9
          3840.,            39.4,           3900.,            35.7,           3960.,            33.7,           4020.,            31.7
*Amplitude, name=Curing
             0.,           163.1,             60.,           163.1,            120.,           163.1,            180.,           163.1
           240.,           163.1,            300.,           163.1,            360.,           163.1,            420.,           163.1
           480.,           163.1,            540.,           163.1,            600.,           163.1,            660.,           163.1
           720.,           163.1,            780.,           163.1,            840.,           163.1,            900.,           163.1
           960.,           163.1,           1020.,           163.1,           1080.,           163.1,           1140.,           163.1
          1200.,           163.1,           1260.,           163.1,           1320.,           163.1,           1380.,           163.1
          1440.,           163.1,           1500.,           163.1,           1560.,           163.1,           1620.,           163.1
          1680.,           163.1,           1740.,           163.1,           1800.,           163.1,           1860.,           163.1
          1920.,           163.1,           1980.,           163.1,           2040.,           163.1,           2100.,           163.1
          2160.,           163.1,           2220.,           163.1,           2280.,           163.1,           2340.,           163.1
          2400.,           163.1,           2460.,           163.1,           2520.,           163.1,           2580.,           163.1
          2640.,           163.1,           2700.,           163.1,           2760.,           163.1,           2820.,           163.1
          2880.,           163.1,           2940.,           163.1,           3000.,           163.1,           3060.,           163.1
          3120.,           163.1,           3180.,           163.1,           3240.,           163.1,           3300.,           163.1
          3360.,           163.1,           3420.,           163.1,           3480.,           163.1,           3540.,           163.1
          3600.,           163.1,           3660.,           163.1,           3720.,           163.1,           3780.,           163.1
          3840.,           163.1,           3900.,           163.1,           3960.,           163.1,           4020.,           163.1
          4080.,           163.1,           4140.,           163.1,           4200.,           163.1,           4260.,           163.1
          4320.,           163.1,           4380.,           163.1,           4440.,           163.1,           4500.,           163.1
          4560.,           163.1,           4620.,           163.1,           4680.,           163.1,           4740.,           163.1
** ... 341 like lines cut
*Amplitude, name=Heating
             0.,            25.4,             60.,            26.6,            120.,            30.5,            180.,            34.6
           240.,            39.1,            300.,             43.,            360.,            47.2,            420.,            51.5
           480.,             55.,            540.,             59.,            600.,            62.7,            660.,            66.9
           720.,            70.4,            780.,            74.8,            840.,            78.8,            900.,            82.7
           960.,             87.,           1020.,            90.9,           1080.,            95.4,           1140.,            98.5
          1200.,           102.8,           1260.,            107.,           1320.,           111.1,           1380.,           115.7
          1440.,           118.9,           1500.,           122.8,           1560.,           127.7,           1620.,           131.4
          1680.,           135.4,           1740.,           140.4,           1800.,           143.8,           1860.,           148.1
          1920.,            152.,           1980.,           156.3,           2040.,           159.7,           2100.,           163.9
          2160.,           168.2,           2220.,           172.8,           2280.,           176.6,           2340.,           180.3
          2400.,           182.1
*Amplitude, name=Hold1_LT
             0.,            32.5,             60.,            31.6,            120.,            31.7,            180.,            30.2
           240.,            30.4,            300.,            30.7,            360.,            29.3,            420.,            28.9
           480.,            29.6,            540.,            28.5,            600.,             29.,            660.,            28.3
           720.,            27.6,            780.,            28.1,            840.,            27.3,            900.,            27.2
           960.,            27.7,           1020.,            27.2,           1080.,            26.8,           1140.,            27.1
          1200.,            26.8,           1260.,            26.6,           1320.,            26.6,           1380.,            26.2
          1440.,            26.1,           1500.,            26.3,           1560.,            25.9,           1620.,            26.3
          1680.,            26.7,           1740.,            26.3,           1800.,            26.1,           1860.,            25.8
          1920.,            25.9,           1980.,            25.7,           2040.,            25.7,           2100.,            25.4
          2160.,            25.7,           2220.,            25.9,           2280.,            25.7,           2340.,            25.5
          2400.,            25.4,           2460.,            25.3,           2520.,            25.4,           2580.,            25.3
          2640.,            25.4,           2700.,            25.4
*Amplitude, name=Hold2_HT
             0.,           182.1,             60.,           183.4,            120.,           184.2,            180.,           185.8
           240.,           185.7,            300.,           186.7,            360.,           187.7,            420.,           187.9
           480.,           188.4,            540.,           189.7,            600.,           190.6,            660.,           190.6
           720.,           190.6,            780.,           191.2,            840.,           191.5,            900.,           191.9
           960.,           192.6,           1020.,           192.2,           1080.,           192.8,           1140.,           192.9
          1200.,           193.8,           1260.,           193.4,           1320.,           193.9,           1380.,           193.7
          1440.,           193.9,           1500.,           194.5,           1560.,           194.8,           1620.,           194.5
          1680.,           195.2,           1740.,           194.9,           1800.,           195.2,           1860.,           195.3
          1920.,           195.2,           1980.,           195.6,           2040.,           195.7,           2100.,           195.8
          2160.,           195.7,           2220.,           195.7,           2280.,           195.9,           2340.,           195.4
          2400.,           196.2,           2460.,           196.3,           2520.,           196.3,           2580.,           195.9
          2640.,           196.4,           2700.,           196.6,           2760.,           196.5,           2820.,           197.1
          2880.,           196.2,           2940.,           196.6,           3000.,           196.4,           3060.,           196.7
          3120.,           197.2,           3180.,           197.3,           3240.,           196.9,           3300.,           196.9
          3360.,           197.4,           3420.,           196.8,           3480.,           197.3
*Amplitude, name=Hold3_LT
             0.,            31.7,             60.,            31.3,            120.,            31.2,            180.,            31.2
           240.,            29.8,            300.,            30.3,            360.,            29.8,            420.,            29.1
           480.,            28.4,            540.,            28.9,            600.,            28.1,            660.,            28.2
           720.,            27.8,            780.,            27.3,            840.,            27.2,            900.,            27.5
           960.,            27.1,           1020.,            26.7,           1080.,            26.9,           1140.,            26.7
          1200.,            26.4,           1260.,            26.8,           1320.,            26.6,           1380.,            26.2
          1440.,            26.1,           1500.,            26.5,           1560.,            26.4,           1620.,            26.2
          1680.,             26.,           1740.,            25.7,           1800.,            25.9,           1860.,            25.7
          1920.,            25.7,           1980.,            25.8,           2040.,            25.6,           2100.,            25.6
          2160.,            25.7,           2220.,            25.5,           2280.,            25.6,           2340.,            25.8
          2400.,            25.7,           2460.,            25.6,           2520.,            25.5,           2580.,            25.4
          2640.,            25.7
** 
** MATERIALS
** 
*Material, name=Fiber
*Elastic
22500., 0.15
*Expansion
 1e-05,
*Material, name=Vitrimer
*Depvar
    157,
*User Material, constants=19
1000.,     13.1868,     1157.36,     12.4347,       1200.,     212490., 1.29361e+06,   0.0002486
        900.,          4.,      0.0001,         50.,        205.,    1.75e-05,   0.0019458,    -3.51712
     52.4274,         10.,         20.
** 
** BOUNDARY CONDITIONS
** 
** Name: Xsym Type: Symmetry/Antisymmetry/Encastre
*Boundary
Set-1, XSYMM
** Name: Ysym Type: Symmetry/Antisymmetry/Encastre
*Boundary
Set-2, YSYMM
** Name: Zsym Type: Symmetry/Antisymmetry/Encastre
*Boundary
Set-3, ZSYMM
** 
** PREDEFINED FIELDS
** 
** Name: Initial Temperature   Type: Temperature
*Initial Conditions, type=TEMPERATURE
Set-4, 163.1
** ----------------------------------------------------------------
** 
** STEP: Curing
** 
*Step, name=Curing, nlgeom=YES, inc=50000
*Static
500., 86400., 0.0864, 500.
** 
** PREDEFINED FIELDS
** 
** Name: Curing   Type: Temperature
*Temperature, amplitude=Curing
Set-5, 1.
** 
** OUTPUT REQUESTS
** 
*Restart, write, frequency=0
** 
** FIELD OUTPUT: F-Output-1
** 
*Output, field, frequency=10
*Node Output
NT, U
*Element Output, directions=YES
LE, S, SDV, TEMP
** 
** HISTORY OUTPUT: H-Output-1
** 
*Output, history, variable=PRESELECT, frequency=5
*End Step
** ----------------------------------------------------------------
** 
** STEP: Cooling1
** 
*Step, name=Cooling1, nlgeom=YES, inc=5000
*Static
40., 2820., 0.0282, 40.
** 
** PREDEFINED FIELDS
** 
** Name: Cooling1   Type: Temperature
*Temperature, amplitude=Cooling1
Set-4, 1.
** 
** OUTPUT REQUESTS
** 
*Restart, write, frequency=0
** 
** FIELD OUTPUT: F-Output-1
** 
*Output, field, frequency=10
*Node Output
NT, U
*Element Output, directions=YES
LE, S, SDV, TEMP
** 
** HISTORY OUTPUT: H-Output-1
** 
*Output, history, variable=PRESELECT, frequency=5
*End Step
** ----------------------------------------------------------------
** 
** STEP: Hold1_LT
** 
*Step, name=Hold1_LT, nlgeom=YES, inc=5000
*Static
40., 2700., 0.027, 40.
** 
** PREDEFINED FIELDS
** 
** Name: Hold1_LT   Type: Temperature
*Temperature, amplitude=Hold1_LT
Set-4, 1.
** 
** OUTPUT REQUESTS
** 
*Restart, write, frequency=0
** 
** FIELD OUTPUT: F-Output-1
** 
*Output, field, frequency=10
*Node Output
NT, U
*Element Output, directions=YES
LE, S, SDV, TEMP
** 
** HISTORY OUTPUT: H-Output-1
** 
*Output, history, variable=PRESELECT, frequency=5
*End Step
** ----------------------------------------------------------------
** 
** STEP: Heating
** 
*Step, name=Heating, nlgeom=YES, inc=5000
*Static
40., 2400., 0.024, 40.
** 
** PREDEFINED FIELDS
** 
** Name: Heating   Type: Temperature
*Temperature, amplitude=Heating
Set-4, 1.
** 
** OUTPUT REQUESTS
** 
*Restart, write, frequency=0
** 
** FIELD OUTPUT: F-Output-1
** 
*Output, field, frequency=10
*Node Output
NT, U
*Element Output, directions=YES
LE, S, SDV, TEMP
** 
** HISTORY OUTPUT: H-Output-1
** 
*Output, history, variable=PRESELECT, frequency=5
*End Step
** ----------------------------------------------------------------
** 
** STEP: Hold2_HT
** 
*Step, name=Hold2_HT, nlgeom=YES, inc=5000
*Static
40., 3480., 0.0348, 40.
** 
** PREDEFINED FIELDS
** 
** Name: Hold2_HT   Type: Temperature
*Temperature, amplitude=Hold2_HT
Set-4, 1.
** 
** OUTPUT REQUESTS
** 
*Restart, write, frequency=0
** 
** FIELD OUTPUT: F-Output-1
** 
*Output, field, frequency=10
*Node Output
NT, U
*Element Output, directions=YES
LE, S, SDV, TEMP
** 
** HISTORY OUTPUT: H-Output-1
** 
*Output, history, variable=PRESELECT, frequency=5
*End Step
** ----------------------------------------------------------------
** 
** STEP: Cooling2
** 
*Step, name=Cooling2, nlgeom=YES, inc=5000
*Static
40., 4020., 0.0402, 40.
** 
** PREDEFINED FIELDS
** 
** Name: Cooling2   Type: Temperature
*Temperature, amplitude=Cooling2
Set-4, 1.
** 
** OUTPUT REQUESTS
** 
*Restart, write, frequency=0
** 
** FIELD OUTPUT: F-Output-1
** 
*Output, field, frequency=10
*Node Output
NT, U
*Element Output, directions=YES
LE, S, SDV, TEMP
** 
** HISTORY OUTPUT: H-Output-1
** 
*Output, history, variable=PRESELECT, frequency=5
*End Step
** ----------------------------------------------------------------
** 
** STEP: Hold3_LT
** 
*Step, name=Hold3_LT, nlgeom=YES, inc=5000
*Static
40., 2460., 0.0246, 40.
** 
** PREDEFINED FIELDS
** 
** Name: Hold3_LT   Type: Temperature
*Temperature, amplitude=Hold3_LT
Set-4, 1.
** 
** OUTPUT REQUESTS
** 
*Restart, write, frequency=0
** 
** FIELD OUTPUT: F-Output-1
** 
*Output, field, frequency=10
*Node Output
NT, U
*Element Output, directions=YES
E, EE, LE, MISES, MISESMAX, S, SDV, TEMP, TRIAX
** 
** HISTORY OUTPUT: H-Output-1
** 
*Output, history, variable=PRESELECT, frequency=5
*End Step
